REMARK  5 active torsions:
REMARK  status: ('A' for Active; 'I' for Inactive)
REMARK       I    between atoms: N1_8  and  C7_9 
REMARK    1  A    between atoms: C7_9  and  C8_11 
REMARK    2  A    between atoms: C8_11  and  N2_12 
REMARK    3  A    between atoms: N2_12  and  S1_13 
REMARK    4  A    between atoms: S1_13  and  C9_16 
REMARK    5  A    between atoms: C14_21  and  C15_22 
ROOT
HETATM    1  C1  UNL     1      -2.236   0.656   0.679  1.00  0.00     0.302 C 
HETATM    2  O1  UNL     1      -3.238   0.064   1.507  1.00  0.00    -0.344 OA
HETATM    3  C2  UNL     1      -4.515  -0.405   1.284  1.00  0.00     0.133 C 
HETATM    4  C3  UNL     1      -5.459  -0.028   0.447  1.00  0.00    -0.003 C 
HETATM    5  C4  UNL     1      -5.691   0.983  -0.609  1.00  0.00     0.030 C 
HETATM    6  C5  UNL     1      -4.408   1.491  -1.215  1.00  0.00     0.024 C 
HETATM    7  C6  UNL     1      -3.481   0.391  -1.624  1.00  0.00     0.128 C 
HETATM    8  N1  UNL     1      -2.377   0.256  -0.690  1.00  0.00    -0.329 N 
HETATM    9  C7  UNL     1      -1.235  -0.386  -1.219  1.00  0.00     0.235 C 
HETATM   10  O2  UNL     1      -1.276  -0.778  -2.412  1.00  0.00    -0.272 OA
ENDROOT
BRANCH   9  11
HETATM   11  C8  UNL     1       0.017  -0.626  -0.448  1.00  0.00     0.207 C 
BRANCH  11  12
HETATM   12  N2  UNL     1       1.010  -1.300  -1.221  1.00  0.00    -0.207 NA
HETATM   13  H13 UNL     1       0.660  -2.190  -1.633  1.00  0.00     0.140 HD
BRANCH  12  14
HETATM   14  S1  UNL     1       2.428  -1.561  -0.335  1.00  0.00     0.242 S 
HETATM   15  O3  UNL     1       2.094  -2.341   0.936  1.00  0.00    -0.206 OA
HETATM   16  O4  UNL     1       3.382  -2.444  -1.112  1.00  0.00    -0.206 OA
BRANCH  14  17
HETATM   17  C9  UNL     1       3.264  -0.133   0.191  1.00  0.00     0.084 A 
HETATM   18  C10 UNL     1       2.972   1.142  -0.225  1.00  0.00     0.026 A 
HETATM   19  C11 UNL     1       3.725   2.230   0.235  1.00  0.00     0.002 A 
HETATM   20  C12 UNL     1       4.761   1.984   1.109  1.00  0.00     0.001 A 
HETATM   21  C13 UNL     1       5.070   0.707   1.537  1.00  0.00     0.013 A 
HETATM   22  C14 UNL     1       4.325  -0.346   1.080  1.00  0.00    -0.014 A 
BRANCH  22  23
HETATM   23  C15 UNL     1       4.677  -1.696   1.545  1.00  0.00     0.003 C 
HETATM   24  C16 UNL     1       5.485  -2.414   0.806  1.00  0.00     0.012 C 
ENDBRANCH  22  23
ENDBRANCH  14  17
ENDBRANCH  12  14
ENDBRANCH  11  12
ENDBRANCH   9  11
TORSDOF 5
