REMARK  5 active torsions:
REMARK  status: ('A' for Active; 'I' for Inactive)
REMARK    1  A    between atoms: C3_3  and  C4_4 
REMARK    2  A    between atoms: C3_3  and  C11_15 
REMARK    3  A    between atoms: C7_8  and  C8_9 
REMARK       I    between atoms: C8_9  and  N2_11 
REMARK       I    between atoms: C11_15  and  N4_17 
REMARK    4  A    between atoms: N4_17  and  C12_18 
REMARK    5  A    between atoms: C12_18  and  C13_19 
ROOT
HETATM    1  C1  UNL     1       0.333  -1.774   3.647  1.00  0.00     0.037 C 
HETATM    2  C2  UNL     1       1.005  -1.164   2.517  1.00  0.00    -0.012 C 
HETATM    3  C3  UNL     1       0.369  -0.341   1.602  1.00  0.00     0.057 C 
ENDROOT
BRANCH   3   4
HETATM    4  C4  UNL     1      -1.003  -0.138   1.863  1.00  0.00     0.082 A 
HETATM    5  N1  UNL     1      -1.563  -0.842   2.858  1.00  0.00    -0.284 NA
HETATM    6  C5  UNL     1      -2.913  -0.595   3.054  1.00  0.00     0.178 A 
HETATM    7  C6  UNL     1      -3.193   0.450   2.038  1.00  0.00     0.014 A 
HETATM    8  C7  UNL     1      -2.077   0.710   1.343  1.00  0.00     0.060 A 
BRANCH   8   9
HETATM    9  C8  UNL     1      -2.037   1.665   0.285  1.00  0.00     0.268 C 
HETATM   10  O1  UNL     1      -0.975   2.041  -0.331  1.00  0.00    -0.266 OA
HETATM   11  N2  UNL     1      -3.162   2.341  -0.249  1.00  0.00    -0.255 N 
HETATM   12  C9  UNL     1      -4.559   2.174  -0.029  1.00  0.00     0.172 C 
HETATM   13  C10 UNL     1      -2.887   3.472  -1.158  1.00  0.00     0.186 C 
HETATM   14  N3  UNL     1      -2.666   4.356  -1.878  1.00  0.00    -0.172 NA
ENDBRANCH   8   9
ENDBRANCH   3   4
BRANCH   3  15
HETATM   15  C11 UNL     1       1.219   0.040   0.549  1.00  0.00     0.253 C 
HETATM   16  O2  UNL     1       0.933   0.793  -0.408  1.00  0.00    -0.268 OA
HETATM   17  N4  UNL     1       2.625  -0.414   0.408  1.00  0.00    -0.353 N 
HETATM   18  H11 UNL     1       2.991  -1.063   1.087  1.00  0.00     0.163 HD
BRANCH  17  19
HETATM   19  C12 UNL     1       3.415   0.058  -0.690  1.00  0.00     0.161 C 
BRANCH  19  20
HETATM   20  C13 UNL     1       3.047  -0.483  -2.015  1.00  0.00    -0.041 A 
HETATM   21  C14 UNL     1       3.768  -0.082  -3.110  1.00  0.00     0.009 A 
HETATM   22  C15 UNL     1       3.428  -0.531  -4.358  1.00  0.00     0.001 A 
HETATM   23  C16 UNL     1       2.369  -1.388  -4.554  1.00  0.00     0.000 A 
HETATM   24  C17 UNL     1       1.632  -1.800  -3.445  1.00  0.00     0.001 A 
HETATM   25  C18 UNL     1       1.986  -1.341  -2.212  1.00  0.00     0.009 A 
ENDBRANCH  19  20
ENDBRANCH  17  19
ENDBRANCH   3  15
TORSDOF 5
