REMARK  5 active torsions:
REMARK  status: ('A' for Active; 'I' for Inactive)
REMARK    1  A    between atoms: C2_2  and  C3_3 
REMARK    2  A    between atoms: C3_3  and  C5_6 
REMARK    3  A    between atoms: C6_7  and  C7_8 
REMARK       I    between atoms: C7_8  and  N1_10 
REMARK    4  A    between atoms: N1_10  and  C9_12 
REMARK    5  A    between atoms: C15_18  and  C16_19 
ROOT
HETATM    1  C1  UNL     1      -3.527  -3.304   1.376  1.00  0.00     0.009 C 
HETATM    2  C2  UNL     1      -3.189  -1.873   1.022  1.00  0.00     0.044 C 
ENDROOT
BRANCH   2   3
HETATM    3  C3  UNL     1      -2.207  -1.883  -0.137  1.00  0.00     0.131 C 
HETATM    4  C4  UNL     1      -2.822  -2.579  -1.347  1.00  0.00     0.057 C 
HETATM    5  F1  UNL     1      -1.149  -2.659   0.252  1.00  0.00    -0.238 F 
BRANCH   3   6
HETATM    6  C5  UNL     1      -1.799  -0.484  -0.500  1.00  0.00     0.041 A 
HETATM    7  C6  UNL     1      -0.701   0.212  -0.584  1.00  0.00     0.041 A 
HETATM    8  C15 UNL     1      -1.368   1.422  -1.000  1.00  0.00     0.155 A 
HETATM    9  C18 UNL     1      -2.588   0.641  -0.923  1.00  0.00     0.174 A 
HETATM   10  O2  UNL     1      -3.841   0.829  -1.131  1.00  0.00    -0.291 OA
BRANCH   7  11
HETATM   11  C7  UNL     1       0.695  -0.164  -0.322  1.00  0.00     0.256 C 
HETATM   12  O1  UNL     1       0.973  -1.362   0.068  1.00  0.00    -0.267 OA
HETATM   13  N1  UNL     1       1.812   0.662  -0.453  1.00  0.00    -0.318 N 
HETATM   14  C8  UNL     1       1.696   2.010  -0.924  1.00  0.00     0.159 C 
BRANCH  13  15
HETATM   15  C9  UNL     1       3.105   0.174  -0.125  1.00  0.00     0.037 A 
HETATM   16  C10 UNL     1       3.587  -1.045  -0.551  1.00  0.00     0.029 A 
HETATM   17  C11 UNL     1       4.838  -1.525  -0.239  1.00  0.00     0.002 A 
HETATM   18  C12 UNL     1       5.681  -0.766   0.542  1.00  0.00     0.000 A 
HETATM   19  C13 UNL     1       5.248   0.455   0.990  1.00  0.00     0.002 A 
HETATM   20  C14 UNL     1       3.987   0.914   0.663  1.00  0.00     0.029 A 
ENDBRANCH  13  15
ENDBRANCH   7  11
BRANCH   8  21
HETATM   21  C16 UNL     1      -1.428   2.534  -0.008  1.00  0.00     0.091 A 
HETATM   22  C17 UNL     1      -1.364   3.865  -0.361  1.00  0.00     0.170 A 
HETATM   23  N2  UNL     1      -1.442   4.596   0.757  1.00  0.00    -0.168 NA
HETATM   24  N3  UNL     1      -1.551   3.764   1.773  1.00  0.00    -0.197 N 
HETATM   25  N4  UNL     1      -1.544   2.507   1.327  1.00  0.00    -0.159 NA
HETATM   26  H19 UNL     1      -1.628   4.086   2.770  1.00  0.00     0.212 HD
ENDBRANCH   8  21
ENDBRANCH   3   6
ENDBRANCH   2   3
TORSDOF 5
