REMARK  5 active torsions:
REMARK  status: ('A' for Active; 'I' for Inactive)
REMARK       I    between atoms: C2_2  and  N1_4 
REMARK    1  A    between atoms: N1_4  and  C3_5 
REMARK    2  A    between atoms: C7_9  and  C9_11 
REMARK       I    between atoms: C9_11  and  N2_13 
REMARK    3  A    between atoms: N2_13  and  C10_14 
REMARK    4  A    between atoms: C10_14  and  C11_15 
REMARK    5  A    between atoms: C12_16  and  C13_17 
ROOT
HETATM    1  C1  UNL     1      -8.832  -0.085   0.544  1.00  0.00     0.117 C 
HETATM    2  C2  UNL     1      -7.619   0.800   0.666  1.00  0.00     0.218 C 
HETATM    3  O1  UNL     1      -7.750   2.030   0.857  1.00  0.00    -0.274 OA
HETATM    4  N1  UNL     1      -6.349   0.226   0.563  1.00  0.00    -0.327 N 
HETATM    5  H4  UNL     1      -6.352  -0.836   0.399  1.00  0.00     0.169 HD
ENDROOT
BRANCH   4   6
HETATM    6  C3  UNL     1      -5.112   0.906   0.656  1.00  0.00     0.035 A 
HETATM    7  C4  UNL     1      -4.951   2.202   1.001  1.00  0.00     0.029 A 
HETATM    8  C5  UNL     1      -3.696   2.808   1.058  1.00  0.00     0.003 A 
HETATM    9  C6  UNL     1      -2.602   2.063   0.754  1.00  0.00     0.017 A 
HETATM   10  C7  UNL     1      -2.690   0.711   0.387  1.00  0.00     0.034 A 
HETATM   11  C8  UNL     1      -3.951   0.186   0.353  1.00  0.00     0.046 A 
BRANCH  10  12
HETATM   12  C9  UNL     1      -1.480  -0.029   0.069  1.00  0.00     0.251 C 
HETATM   13  O2  UNL     1      -0.390   0.573   0.002  1.00  0.00    -0.268 OA
HETATM   14  N2  UNL     1      -1.536  -1.409  -0.161  1.00  0.00    -0.353 N 
HETATM   15  H9  UNL     1      -2.427  -1.976  -0.117  1.00  0.00     0.163 HD
BRANCH  14  16
HETATM   16  C10 UNL     1      -0.317  -2.138  -0.479  1.00  0.00     0.150 C 
BRANCH  16  17
HETATM   17  C11 UNL     1       0.251  -1.557  -1.720  1.00  0.00    -0.010 C 
HETATM   18  C12 UNL     1       1.461  -1.066  -1.768  1.00  0.00    -0.016 C 
BRANCH  18  19
HETATM   19  C13 UNL     1       2.483  -0.969  -0.703  1.00  0.00     0.062 C 
HETATM   20  C14 UNL     1       3.711  -1.625  -1.166  1.00  0.00     0.003 C 
HETATM   21  C15 UNL     1       4.947  -1.495  -0.773  1.00  0.00     0.087 C 
HETATM   22  N3  UNL     1       5.560  -0.699   0.222  1.00  0.00    -0.368 N 
HETATM   23  C16 UNL     1       6.533   0.300  -0.340  1.00  0.00     0.155 C 
HETATM   24  C17 UNL     1       5.476  -0.690   1.624  1.00  0.00     0.133 C 
HETATM   25  C18 UNL     1       4.511  -0.621   2.491  1.00  0.00     0.149 C 
HETATM   26  F1  UNL     1       4.970  -0.656   3.835  1.00  0.00    -0.203 F 
HETATM   27  C19 UNL     1       3.077  -0.485   2.460  1.00  0.00     0.159 C 
HETATM   28  N4  UNL     1       2.355   0.234   1.680  1.00  0.00    -0.270 NA
HETATM   29  C20 UNL     1       2.720   1.095   0.628  1.00  0.00     0.119 C 
HETATM   30  C21 UNL     1       2.786   0.490  -0.575  1.00  0.00    -0.055 C 
HETATM   31  C22 UNL     1       3.156   1.259  -1.765  1.00  0.00     0.046 C 
ENDBRANCH  18  19
ENDBRANCH  16  17
ENDBRANCH  14  16
ENDBRANCH  10  12
ENDBRANCH   4   6
TORSDOF 5
