REMARK  5 active torsions:
REMARK  status: ('A' for Active; 'I' for Inactive)
REMARK    1  A    between atoms: C3_2029  and  O4_2030 
REMARK    2  A    between atoms: O4_2030  and  C7_2033 
REMARK    3  A    between atoms: C12_2040  and  C15_2043 
REMARK    4  A    between atoms: C13_2041  and  C17_2045 
REMARK    5  A    between atoms: C16_2044  and  O19_2047 
ROOT
HETATM    1  C3  Z7G A4000      -7.839  26.863  14.234  1.00 34.47     0.121 A 
HETATM    2  C5  Z7G A4000      -7.341  27.804  15.125  1.00 35.91     0.081 A 
HETATM    3  C6  Z7G A4000      -6.961  26.270  13.339  1.00 35.14     0.081 A 
HETATM    4  C8  Z7G A4000      -6.009  28.164  15.101  1.00 35.79     0.012 A 
HETATM    5 Cl   Z7G A4000      -8.385  28.492  16.331  1.00 37.70    -0.080 Cl
HETATM    6  C9  Z7G A4000      -5.632  26.629  13.303  1.00 35.11     0.012 A 
HETATM    7 Cl   Z7G A4000      -7.509  24.967  12.328  1.00 36.27    -0.080 Cl
HETATM    8  C12 Z7G A4000      -5.141  27.583  14.182  1.00 36.08     0.012 A 
ENDROOT
BRANCH   1   9
HETATM    9  O4  Z7G A4000      -9.179  26.517  14.222  1.00 32.81    -0.305 OA
BRANCH   9  10
HETATM   10  C7  Z7G A4000      -9.591  25.421  14.980  1.00 31.05     0.100 A 
HETATM   11  C10 Z7G A4000     -10.890  24.961  14.849  1.00 30.40     0.022 A 
HETATM   12  C13 Z7G A4000     -11.300  23.807  15.516  1.00 30.29     0.002 A 
HETATM   13  C16 Z7G A4000     -10.405  23.196  16.398  1.00 29.25     0.090 A 
HETATM   14  C14 Z7G A4000      -9.119  23.689  16.562  1.00 29.24     0.026 A 
HETATM   15  C11 Z7G A4000      -8.708  24.797  15.845  1.00 29.82     0.027 A 
BRANCH  12  16
HETATM   16  C17 Z7G A4000     -12.639  23.166  15.190  1.00 31.87     0.024 C 
HETATM   17  C20 Z7G A4000     -12.500  22.112  14.097  1.00 32.25     0.005 C 
HETATM   18  C21 Z7G A4000     -13.694  24.190  14.782  1.00 33.09     0.005 C 
ENDBRANCH  12  16
BRANCH  13  19
HETATM   19  O19 Z7G A4000     -10.901  22.118  17.081  1.00 28.37    -0.328 OA
HETATM   20  C22 Z7G A4000     -10.083  21.531  18.096  1.00 27.65     0.181 C 
ENDBRANCH  13  19
ENDBRANCH   9  10
ENDBRANCH   1   9
BRANCH   8  21
HETATM   21  C15 Z7G A4000      -3.697  27.993  14.127  1.00 38.14     0.209 C 
HETATM   22  O18 Z7G A4000      -2.825  26.870  14.092  1.00 39.84    -0.216 OA
ENDBRANCH   8  21
TORSDOF 5
