REMARK  7 active torsions:
REMARK  status: ('A' for Active; 'I' for Inactive)
REMARK    1  A    between atoms: C1_1984  and  C2_1985 
REMARK    2  A    between atoms: C5_1988  and  O3_1994 
REMARK    3  A    between atoms: C6_1989  and  C7_1990 
REMARK    4  A    between atoms: C6_1989  and  O3_1994 
REMARK    5  A    between atoms: C8_1991  and  C9_1995 
REMARK    6  A    between atoms: C14_2001  and  C15_2002 
REMARK    7  A    between atoms: C16_2008  and  C17_2009 
ROOT
HETATM    1  C1  ULT A 601       3.120 -42.523 -19.463  1.00 25.98     0.211 C 
HETATM    2  O1  ULT A 601       3.396 -41.315 -19.532  1.00 26.35    -0.644 OA
HETATM    3  O2  ULT A 601       3.555 -43.386 -20.269  1.00 26.41    -0.644 OA
ENDROOT
BRANCH   1   4
HETATM    4  C2  ULT A 601       2.158 -42.979 -18.390  1.00 24.02     0.065 A 
HETATM    5  C3  ULT A 601       1.394 -42.067 -17.672  1.00 23.33     0.008 A 
HETATM    6  C4  ULT A 601       0.471 -42.494 -16.731  1.00 23.26     0.024 A 
HETATM    7  C5  ULT A 601       0.305 -43.848 -16.483  1.00 22.72     0.095 A 
HETATM    8  C21 ULT A 601       1.079 -44.768 -17.176  1.00 22.84     0.024 A 
HETATM    9  C22 ULT A 601       1.979 -44.332 -18.134  1.00 23.84     0.008 A 
BRANCH   7  10
HETATM   10  O3  ULT A 601      -0.570 -44.388 -15.567  1.00 23.58    -0.326 OA
BRANCH  10  11
HETATM   11  C6  ULT A 601      -1.298 -43.496 -14.697  1.00 22.37     0.179 C 
BRANCH  11  12
HETATM   12  C7  ULT A 601      -2.129 -44.238 -13.713  1.00 21.86     0.053 A 
HETATM   13  C8  ULT A 601      -3.484 -43.995 -13.493  1.00 21.59     0.109 A 
HETATM   14  N1  ULT A 601      -3.921 -44.755 -12.514  1.00 24.11    -0.127 NA
HETATM   15  O4  ULT A 601      -2.814 -45.495 -12.045  1.00 25.03    -0.211 OA
HETATM   16  C16 ULT A 601      -1.728 -45.162 -12.773  1.00 22.65     0.127 A 
BRANCH  13  17
HETATM   17  C9  ULT A 601      -4.405 -43.065 -14.178  1.00 22.45     0.034 A 
HETATM   18  C10 ULT A 601      -4.190 -41.692 -14.091  1.00 23.64     0.059 A 
HETATM   19 Cl   ULT A 601      -2.859 -41.067 -13.183  1.00 27.63    -0.082 Cl
HETATM   20  C11 ULT A 601      -5.042 -40.783 -14.691  1.00 24.21     0.012 A 
HETATM   21  C12 ULT A 601      -6.112 -41.244 -15.417  1.00 24.22     0.001 A 
HETATM   22  C13 ULT A 601      -6.355 -42.601 -15.521  1.00 24.93     0.004 A 
HETATM   23  C14 ULT A 601      -5.518 -43.530 -14.909  1.00 22.69     0.074 A 
BRANCH  23  24
HETATM   24  C15 ULT A 601      -5.839 -44.981 -15.063  1.00 23.73     0.419 C 
HETATM   25  F1  ULT A 601      -6.700 -45.215 -16.065  1.00 28.06    -0.166 F 
HETATM   26  F2  ULT A 601      -6.406 -45.490 -13.950  1.00 27.25    -0.166 F 
HETATM   27  F3  ULT A 601      -4.756 -45.717 -15.327  1.00 25.24    -0.166 F 
ENDBRANCH  23  24
ENDBRANCH  13  17
BRANCH  16  28
HETATM   28  C17 ULT A 601      -0.493 -45.843 -12.434  1.00 22.39     0.045 A 
HETATM   29  C18 ULT A 601       0.746 -45.820 -13.121  1.00 22.77     0.024 A 
HETATM   30  C19 ULT A 601       1.607 -46.631 -12.438  1.00 23.76     0.099 A 
HETATM   31  N2  ULT A 601       0.937 -47.177 -11.392  1.00 24.48    -0.242 NA
HETATM   32  C20 ULT A 601      -0.334 -46.709 -11.377  1.00 24.43     0.101 A 
ENDBRANCH  16  28
ENDBRANCH  11  12
ENDBRANCH  10  11
ENDBRANCH   7  10
ENDBRANCH   1   4
TORSDOF 7
